EESchema Schematic File Version 4
LIBS:practice-cache
EELAYER 29 0
EELAYER END
$Descr A4 11693 8268
encoding utf-8
Sheet 1 1
Title ""
Date ""
Rev ""
Comp ""
Comment1 ""
Comment2 ""
Comment3 ""
Comment4 ""
$EndDescr
$Comp
L pspice:VSOURCE V2
U 1 1 5C389934
P 2750 3950
F 0 "V2" H 2978 3996 50  0000 L CNN
F 1 "DC 0 AC 1" H 2978 3905 50  0000 L CNN
F 2 "" H 2750 3950 50  0001 C CNN
F 3 "~" H 2750 3950 50  0001 C CNN
	1    2750 3950
	1    0    0    -1  
$EndComp
Text Notes 3850 4700 0    50   ~ 0
.ac dec 1k 1 10meg
Wire Wire Line
	2750 3650 2750 3450
$Comp
L pspice:INDUCTOR L1
U 1 1 5CBDC5EC
P 3950 3450
F 0 "L1" H 3950 3665 50  0000 C CNN
F 1 "2.2u" H 3950 3574 50  0000 C CNN
F 2 "" H 3950 3450 50  0001 C CNN
F 3 "~" H 3950 3450 50  0001 C CNN
	1    3950 3450
	1    0    0    -1  
$EndComp
Wire Wire Line
	2750 4250 2750 4400
$Comp
L pspice:INDUCTOR L2
U 1 1 5CBDC63E
P 3950 4400
F 0 "L2" H 3950 4615 50  0000 C CNN
F 1 "2.2u" H 3950 4524 50  0000 C CNN
F 2 "" H 3950 4400 50  0001 C CNN
F 3 "~" H 3950 4400 50  0001 C CNN
	1    3950 4400
	1    0    0    -1  
$EndComp
$Comp
L pspice:C C1
U 1 1 5CBDC799
P 4550 3950
F 0 "C1" H 4728 3996 50  0000 L CNN
F 1 "2.2n" H 4728 3905 50  0000 L CNN
F 2 "" H 4550 3950 50  0001 C CNN
F 3 "~" H 4550 3950 50  0001 C CNN
	1    4550 3950
	1    0    0    -1  
$EndComp
Wire Wire Line
	4550 3700 4550 3450
Wire Wire Line
	4550 3450 4300 3450
Wire Wire Line
	4550 4200 4550 4400
Wire Wire Line
	4550 4400 4300 4400
$Comp
L pspice:C C2
U 1 1 5CBDC825
P 5100 3450
F 0 "C2" V 5415 3450 50  0000 C CNN
F 1 "10n" V 5324 3450 50  0000 C CNN
F 2 "" H 5100 3450 50  0001 C CNN
F 3 "~" H 5100 3450 50  0001 C CNN
	1    5100 3450
	0    1    -1   0   
$EndComp
$Comp
L pspice:C C3
U 1 1 5CBDC851
P 5100 4400
F 0 "C3" V 4785 4400 50  0000 C CNN
F 1 "10n" V 4876 4400 50  0000 C CNN
F 2 "" H 5100 4400 50  0001 C CNN
F 3 "~" H 5100 4400 50  0001 C CNN
	1    5100 4400
	0    1    1    0   
$EndComp
Wire Wire Line
	4550 3450 4750 3450
Connection ~ 4550 3450
Wire Wire Line
	4550 4400 4800 4400
Connection ~ 4550 4400
$Comp
L pspice:R R1
U 1 1 5CBDCA02
P 5950 3450
F 0 "R1" V 5745 3450 50  0000 C CNN
F 1 "549" V 5836 3450 50  0000 C CNN
F 2 "" H 5950 3450 50  0001 C CNN
F 3 "~" H 5950 3450 50  0001 C CNN
	1    5950 3450
	0    1    1    0   
$EndComp
$Comp
L pspice:R R2
U 1 1 5CBDCA52
P 5950 4400
F 0 "R2" V 5745 4400 50  0000 C CNN
F 1 "549" V 5836 4400 50  0000 C CNN
F 2 "" H 5950 4400 50  0001 C CNN
F 3 "~" H 5950 4400 50  0001 C CNN
	1    5950 4400
	0    1    1    0   
$EndComp
Wire Wire Line
	5350 3450 5500 3450
Wire Wire Line
	5350 4400 5400 4400
Wire Wire Line
	6200 3450 6650 3450
Text Label 6650 3450 0    50   ~ 0
vout
Wire Wire Line
	6200 4400 6650 4400
Wire Wire Line
	6650 3650 6650 3450
Wire Wire Line
	6650 4150 6650 4400
Wire Wire Line
	2750 3450 3350 3450
Wire Wire Line
	2750 4400 3350 4400
$Comp
L pspice:0 #GND04
U 1 1 5CBDE4D9
P 6650 4500
F 0 "#GND04" H 6650 4400 50  0001 C CNN
F 1 "0" H 6650 4377 50  0000 C CNN
F 2 "" H 6650 4500 50  0001 C CNN
F 3 "~" H 6650 4500 50  0001 C CNN
	1    6650 4500
	1    0    0    -1  
$EndComp
Wire Wire Line
	6650 4500 6650 4400
$Comp
L pspice:R R3
U 1 1 5CBDE9B1
P 6650 3900
F 0 "R3" H 6582 3854 50  0000 R CNN
F 1 "1k" H 6582 3945 50  0000 R CNN
F 2 "" H 6650 3900 50  0001 C CNN
F 3 "~" H 6650 3900 50  0001 C CNN
	1    6650 3900
	-1   0    0    1   
$EndComp
$Comp
L pspice:R R4
U 1 1 5CBDEB26
P 4300 3950
F 0 "R4" H 4368 3904 50  0000 L CNN
F 1 "1t" H 4368 3995 50  0000 L CNN
F 2 "" H 4300 3950 50  0001 C CNN
F 3 "~" H 4300 3950 50  0001 C CNN
	1    4300 3950
	-1   0    0    1   
$EndComp
Wire Wire Line
	4300 3700 4300 3450
Connection ~ 4300 3450
Wire Wire Line
	4300 3450 4200 3450
Wire Wire Line
	4300 4200 4300 4400
Connection ~ 4300 4400
Wire Wire Line
	4300 4400 4200 4400
$Comp
L pspice:R R5
U 1 1 5CBDF043
P 5100 3000
F 0 "R5" V 5305 3000 50  0000 C CNN
F 1 "1t" V 5214 3000 50  0000 C CNN
F 2 "" H 5100 3000 50  0001 C CNN
F 3 "~" H 5100 3000 50  0001 C CNN
	1    5100 3000
	0    -1   -1   0   
$EndComp
Wire Wire Line
	4850 3000 4750 3000
Wire Wire Line
	4750 3000 4750 3450
Connection ~ 4750 3450
Wire Wire Line
	4750 3450 4850 3450
Wire Wire Line
	5350 3000 5500 3000
Wire Wire Line
	5500 3000 5500 3450
Connection ~ 5500 3450
Wire Wire Line
	5500 3450 5700 3450
$Comp
L pspice:R R6
U 1 1 5CBDF6EE
P 5100 4700
F 0 "R6" V 4987 4700 50  0000 C CNN
F 1 "1t" V 4896 4700 50  0000 C CNN
F 2 "" H 5100 4700 50  0001 C CNN
F 3 "~" H 5100 4700 50  0001 C CNN
	1    5100 4700
	0    -1   -1   0   
$EndComp
Wire Wire Line
	4850 4700 4800 4700
Wire Wire Line
	4800 4700 4800 4400
Connection ~ 4800 4400
Wire Wire Line
	4800 4400 4850 4400
Wire Wire Line
	5350 4700 5400 4700
Wire Wire Line
	5400 4700 5400 4400
Connection ~ 5400 4400
Wire Wire Line
	5400 4400 5700 4400
$Comp
L pspice:VSOURCE V1
U 1 1 5CBE049B
P 1550 3900
F 0 "V1" H 1778 3946 50  0000 L CNN
F 1 "DC 5 AC 0" H 1778 3855 50  0000 L CNN
F 2 "" H 1550 3900 50  0001 C CNN
F 3 "~" H 1550 3900 50  0001 C CNN
	1    1550 3900
	1    0    0    -1  
$EndComp
$Comp
L pspice:R R7
U 1 1 5CBE052D
P 3350 3050
F 0 "R7" H 3282 3004 50  0000 R CNN
F 1 "49.9" H 3282 3095 50  0000 R CNN
F 2 "" H 3350 3050 50  0001 C CNN
F 3 "~" H 3350 3050 50  0001 C CNN
	1    3350 3050
	-1   0    0    1   
$EndComp
$Comp
L pspice:C C4
U 1 1 5CBE0580
P 2850 2650
F 0 "C4" V 2535 2650 50  0000 C CNN
F 1 "100n" V 2626 2650 50  0000 C CNN
F 2 "" H 2850 2650 50  0001 C CNN
F 3 "~" H 2850 2650 50  0001 C CNN
	1    2850 2650
	0    1    1    0   
$EndComp
Wire Wire Line
	1550 3600 1550 3200
Text Label 1550 3200 0    50   ~ 0
5V
$Comp
L pspice:0 #GND01
U 1 1 5CBE0A83
P 1550 4400
F 0 "#GND01" H 1550 4300 50  0001 C CNN
F 1 "0" H 1550 4277 50  0000 C CNN
F 2 "" H 1550 4400 50  0001 C CNN
F 3 "~" H 1550 4400 50  0001 C CNN
	1    1550 4400
	1    0    0    -1  
$EndComp
Wire Wire Line
	1550 4400 1550 4200
Wire Wire Line
	2600 2650 2450 2650
Wire Wire Line
	2450 2650 2450 2800
$Comp
L pspice:0 #GND02
U 1 1 5CBE15A7
P 2450 2800
F 0 "#GND02" H 2450 2700 50  0001 C CNN
F 1 "0" H 2450 2677 50  0000 C CNN
F 2 "" H 2450 2800 50  0001 C CNN
F 3 "~" H 2450 2800 50  0001 C CNN
	1    2450 2800
	1    0    0    -1  
$EndComp
Wire Wire Line
	3350 3300 3350 3450
Connection ~ 3350 3450
Wire Wire Line
	3350 3450 3700 3450
Wire Wire Line
	3350 2800 3350 2650
Wire Wire Line
	3350 2650 3100 2650
Wire Wire Line
	3350 2650 3350 2350
Connection ~ 3350 2650
Text Label 3350 2350 0    50   ~ 0
5V
$Comp
L pspice:R R8
U 1 1 5CBE2BFC
P 3350 4800
F 0 "R8" H 3282 4754 50  0000 R CNN
F 1 "49.9" H 3282 4845 50  0000 R CNN
F 2 "" H 3350 4800 50  0001 C CNN
F 3 "~" H 3350 4800 50  0001 C CNN
	1    3350 4800
	-1   0    0    -1  
$EndComp
$Comp
L pspice:C C5
U 1 1 5CBE2C03
P 2850 5200
F 0 "C5" V 2535 5200 50  0000 C CNN
F 1 "100n" V 2626 5200 50  0000 C CNN
F 2 "" H 2850 5200 50  0001 C CNN
F 3 "~" H 2850 5200 50  0001 C CNN
	1    2850 5200
	0    1    -1   0   
$EndComp
Wire Wire Line
	2600 5200 2450 5200
Wire Wire Line
	2450 5200 2450 5350
$Comp
L pspice:0 #GND03
U 1 1 5CBE2C0C
P 2450 5350
F 0 "#GND03" H 2450 5250 50  0001 C CNN
F 1 "0" H 2450 5227 50  0000 C CNN
F 2 "" H 2450 5350 50  0001 C CNN
F 3 "~" H 2450 5350 50  0001 C CNN
	1    2450 5350
	1    0    0    -1  
$EndComp
Wire Wire Line
	3350 4550 3350 4400
Wire Wire Line
	3350 5050 3350 5200
Wire Wire Line
	3350 5200 3100 5200
Wire Wire Line
	3350 5200 3350 5500
Connection ~ 3350 5200
Text Label 3350 5500 0    50   ~ 0
5V
Connection ~ 3350 4400
Wire Wire Line
	3350 4400 3700 4400
$EndSCHEMATC
